OPT_V9/8ts_w_storgae_myc_NEW_PARAM/powerflow_results_t7.txt
Pandapower Network Debug Info
==================================================

BUS:
       vm_pu  va_degree      p_mw    q_mvar
0   1.005877   0.201876 -0.003269 -0.000828
1   1.009072   0.317485 -0.003123  0.000071
2   1.011210   0.366034 -0.001950 -0.000565
3   1.008101   0.290739 -0.003232 -0.000164
4   1.001132   0.155414 -0.001058  0.000909
5   1.004905   0.200402 -0.002921  0.000877
6   1.008504   0.265197 -0.003232 -0.001203
7   1.002390   0.083175 -0.003239 -0.000440
8   1.000710   0.034697 -0.003179 -0.000956
9   0.999958   0.001457  0.007298  0.010878
10  0.999953   0.001547  0.004784  0.006398
11  0.999950   0.001600  0.002311  0.003673
12  0.999972   0.002619  0.007730  0.005360
13  0.999970   0.002849  0.001496  0.007638
14  0.999969   0.002862  0.001584  0.001688
15  0.999981   0.001026  0.000000  0.000000
16  0.999982   0.001026  0.000000  0.000000
17  0.999976   0.002632  0.000000  0.000000
18  0.999976   0.002632  0.000000  0.000000
19  1.000000   0.000000 -0.002928 -0.024533
20  1.000000   0.000003  0.000000  0.000000
21  1.000000   0.000000  0.002747 -0.018914
22  1.000000   0.000002  0.000000  0.000000
--------------------------------------------------

LINE:
    p_from_mw  q_from_mvar   p_to_mw  q_to_mvar         pl_mw       ql_mvar  i_from_ka   i_to_ka      i_ka  vm_from_pu  va_from_degree  vm_to_pu  va_to_degree  loading_percent
0    0.002918     0.020533 -0.002918  -0.020533  4.207198e-07  3.280422e-07   0.000798  0.000798  0.000798    1.000000        0.000003  0.999981      0.001026         0.347071
1   -0.002757     0.014914  0.002757  -0.014913  6.187088e-07  4.824174e-07   0.000584  0.000584  0.000584    1.000000        0.000002  0.999976      0.002632         0.253804
2    0.014394     0.020950 -0.014393  -0.020950  4.996251e-07  3.895659e-07   0.000978  0.000978  0.000978    0.999981        0.001026  0.999958      0.001457         0.425376
3    0.007731     0.005360 -0.007730  -0.005360  3.060359e-08  2.386212e-08   0.000362  0.000362  0.000362    0.999976        0.002632  0.999972      0.002619         0.157427
4    0.003080     0.009326 -0.003080  -0.009326  5.274561e-08  4.112662e-08   0.000378  0.000378  0.000378    0.999976        0.002632  0.999970      0.002849         0.164362
5   -0.011486    -0.001417  0.011549   0.001466  6.264731e-05  4.884714e-05   0.016705  0.016705  0.016705    0.999982        0.001026  1.005877      0.201876         7.262891
6   -0.006114    -0.000296  0.006143   0.000319  2.906768e-05  2.266455e-05   0.008835  0.008835  0.008835    0.999976        0.002632  1.004905      0.200402         3.841289
7   -0.003232    -0.000434  0.003239   0.000440  7.184183e-06  5.601625e-06   0.004707  0.004707  0.004707    0.999976        0.002632  1.002390      0.083175         2.046412
8   -0.004232    -0.000042  0.004235   0.000045  3.079398e-06  2.401057e-06   0.006108  0.006108  0.006108    0.999976        0.002632  1.000710      0.034697         2.655823
9   -0.007095    -0.010071  0.007095   0.010071  5.248965e-08  4.092705e-08   0.000474  0.000474  0.000474    0.999953        0.001547  0.999958      0.001457         0.206172
10  -0.002311    -0.003673  0.002311   0.003673  9.212136e-09  7.182854e-09   0.000167  0.000167  0.000167    0.999950        0.001600  0.999953      0.001547         0.072630
11  -0.001584    -0.001688  0.001584   0.001688  2.619631e-09  2.042570e-09   0.000089  0.000089  0.000089    0.999969        0.002862  0.999970      0.002849         0.038731
12   0.005069     0.000491 -0.005054  -0.000479  1.507173e-05  1.175167e-05   0.007285  0.007285  0.007285    1.009072        0.317485  1.005877      0.201876         3.167450
13   0.003232     0.000164 -0.003225  -0.000159  6.879820e-06  5.364309e-06   0.004633  0.004633  0.004633    1.008101        0.290739  1.005877      0.201876         2.014440
14   0.001950     0.000565 -0.001947  -0.000562  3.648010e-06  2.844414e-06   0.002899  0.002899  0.002899    1.011210        0.366034  1.009072      0.317485         1.260238
15  -0.001056     0.000911  0.001058  -0.000909  2.364305e-06  1.843488e-06   0.002012  0.002012  0.002012    1.000710        0.034697  1.001132      0.155414         0.874786
16   0.003232     0.001203 -0.003222  -0.001196  1.018039e-05  7.937818e-06   0.004936  0.004936  0.004936    1.008504        0.265197  1.004905      0.200402         2.145947
--------------------------------------------------

TRAFO:
    p_hv_mw  q_hv_mvar   p_lv_mw  q_lv_mvar    pl_mw  ql_mvar   i_hv_ka   i_lv_ka  vm_hv_pu  va_hv_degree  vm_lv_pu  va_lv_degree  loading_percent
0 -0.011476  -0.000417  0.011486   0.001417  0.00001    0.001  0.000442  0.016705  0.999981      0.001026  0.999982      0.001026         0.115733
1 -0.013567   0.000227  0.013577   0.000773  0.00001    0.001  0.000522  0.019629  0.999976      0.002632  0.999976      0.002632         0.135995
2  0.002928   0.024533 -0.002918  -0.020533  0.00001    0.004  0.000204  0.000798  1.000000      0.000000  1.000000      0.000003         0.061768
3 -0.002747   0.018914  0.002757  -0.014914  0.00001    0.004  0.000158  0.000584  1.000000      0.000000  1.000000      0.000002         0.047780
--------------------------------------------------
